<?xml version="1.0" encoding="UTF-8"?>

<!-- generated on 2023-04-01 22:54:40 by Eclipse SUMO netconvert Version 1.16.0
<configuration xmlns:xsi="http://www.w3.org/2001/XMLSchema-instance" xsi:noNamespaceSchemaLocation="http://sumo.dlr.de/xsd/netconvertConfiguration.xsd">

    <input>
        <osm-files value="map_nttd.osm"/>
    </input>

    <output>
        <output-file value="map_nttd.net.xml"/>
    </output>

    <projection>
        <proj.utm value="true"/>
    </projection>

    <processing>
        <geometry.remove value="true"/>
        <roundabouts.guess value="true"/>
    </processing>

    <tls_building>
        <tls.discard-simple value="true"/>
        <tls.join value="true"/>
        <tls.guess-signals value="true"/>
    </tls_building>

    <ramp_guessing>
        <ramps.guess value="true"/>
    </ramp_guessing>

    <junctions>
        <junctions.join value="true"/>
    </junctions>

</configuration>
-->

<net version="1.16" junctionCornerDetail="5" limitTurnSpeed="5.50" xmlns:xsi="http://www.w3.org/2001/XMLSchema-instance" xsi:noNamespaceSchemaLocation="http://sumo.dlr.de/xsd/net_file.xsd">

    <location netOffset="-690864.10,-1198384.55" convBoundary="0.00,0.00,4424.59,3414.60" origBoundary="106.745975,10.835810,106.786512,10.866703" projParameter="+proj=utm +zone=48 +ellps=WGS84 +datum=WGS84 +units=m +no_defs"/>

    <type id="highway.bridleway" priority="1" numLanes="1" speed="2.78" allow="pedestrian" oneway="1" width="2.00"/>
    <type id="highway.bus_guideway" priority="1" numLanes="1" speed="27.78" allow="bus" oneway="1"/>
    <type id="highway.cycleway" priority="1" numLanes="1" speed="5.56" allow="bicycle" oneway="0" width="1.00"/>
    <type id="highway.footway" priority="1" numLanes="1" speed="2.78" allow="pedestrian" oneway="1" width="2.00"/>
    <type id="highway.ford" priority="1" numLanes="1" speed="2.78" allow="army" oneway="0"/>
    <type id="highway.living_street" priority="2" numLanes="1" speed="2.78" disallow="tram rail_urban rail rail_electric rail_fast ship" oneway="0"/>
    <type id="highway.motorway" priority="14" numLanes="2" speed="39.44" allow="private emergency authority army vip passenger hov taxi bus coach delivery truck trailer motorcycle evehicle custom1 custom2" oneway="1"/>
    <type id="highway.motorway_link" priority="9" numLanes="1" speed="22.22" allow="private emergency authority army vip passenger hov taxi bus coach delivery truck trailer motorcycle evehicle custom1 custom2" oneway="1"/>
    <type id="highway.path" priority="1" numLanes="1" speed="5.56" allow="pedestrian bicycle" oneway="0" width="2.00"/>
    <type id="highway.pedestrian" priority="1" numLanes="1" speed="2.78" allow="pedestrian" oneway="1" width="2.00"/>
    <type id="highway.primary" priority="12" numLanes="2" speed="27.78" disallow="tram rail_urban rail rail_electric rail_fast ship" oneway="0"/>
    <type id="highway.primary_link" priority="7" numLanes="1" speed="22.22" disallow="tram rail_urban rail rail_electric rail_fast ship" oneway="0"/>
    <type id="highway.raceway" priority="15" numLanes="2" speed="83.33" allow="vip" oneway="0"/>
    <type id="highway.residential" priority="3" numLanes="1" speed="13.89" disallow="tram rail_urban rail rail_electric rail_fast ship" oneway="0"/>
    <type id="highway.secondary" priority="11" numLanes="1" speed="27.78" disallow="tram rail_urban rail rail_electric rail_fast ship" oneway="0"/>
    <type id="highway.secondary_link" priority="6" numLanes="1" speed="22.22" disallow="tram rail_urban rail rail_electric rail_fast ship" oneway="0"/>
    <type id="highway.service" priority="1" numLanes="1" speed="5.56" allow="pedestrian delivery bicycle" oneway="0"/>
    <type id="highway.stairs" priority="1" numLanes="1" speed="1.39" allow="pedestrian" oneway="1" width="2.00"/>
    <type id="highway.step" priority="1" numLanes="1" speed="1.39" allow="pedestrian" oneway="1" width="2.00"/>
    <type id="highway.steps" priority="1" numLanes="1" speed="1.39" allow="pedestrian" oneway="1" width="2.00"/>
    <type id="highway.tertiary" priority="10" numLanes="1" speed="22.22" disallow="tram rail_urban rail rail_electric rail_fast ship" oneway="0"/>
    <type id="highway.tertiary_link" priority="5" numLanes="1" speed="22.22" disallow="tram rail_urban rail rail_electric rail_fast ship" oneway="0"/>
    <type id="highway.track" priority="1" numLanes="1" speed="5.56" allow="pedestrian motorcycle moped bicycle" oneway="0"/>
    <type id="highway.trunk" priority="13" numLanes="2" speed="27.78" disallow="pedestrian bicycle tram rail_urban rail rail_electric rail_fast ship" oneway="0"/>
    <type id="highway.trunk_link" priority="8" numLanes="1" speed="22.22" disallow="pedestrian bicycle tram rail_urban rail rail_electric rail_fast ship" oneway="0"/>
    <type id="highway.unclassified" priority="4" numLanes="1" speed="13.89" disallow="tram rail_urban rail rail_electric rail_fast ship" oneway="0"/>
    <type id="highway.unsurfaced" priority="1" numLanes="1" speed="8.33" disallow="tram rail_urban rail rail_electric rail_fast ship" oneway="0"/>
    <type id="railway.highspeed" priority="21" numLanes="1" speed="69.44" allow="rail_fast" oneway="1"/>
    <type id="railway.light_rail" priority="19" numLanes="1" speed="27.78" allow="rail_urban" oneway="1"/>
    <type id="railway.preserved" priority="16" numLanes="1" speed="27.78" allow="rail" oneway="1"/>
    <type id="railway.rail" priority="20" numLanes="1" speed="44.44" allow="rail" oneway="1"/>
    <type id="railway.subway" priority="18" numLanes="1" speed="27.78" allow="rail_urban" oneway="1"/>
    <type id="railway.tram" priority="17" numLanes="1" speed="13.89" allow="tram" oneway="1"/>

    <edge id=":1009623691#1-AddedOnRampNode_0" function="internal">
        <lane id=":1009623691#1-AddedOnRampNode_0_0" index="0" disallow="tram rail_urban rail rail_electric rail_fast ship" speed="27.78" length="8.00" shape="526.32,2056.28 524.42,2064.05"/>
    </edge>
    <edge id=":1015442479#0-AddedOffRampNode_0" function="internal">
        <lane id=":1015442479#0-AddedOffRampNode_0_0" index="0" disallow="tram rail_urban rail rail_electric rail_fast ship" speed="16.67" length="8.20" shape="621.20,2072.34 620.17,2070.05 618.75,2068.80 617.33,2067.54 616.30,2065.26"/>
        <lane id=":1015442479#0-AddedOffRampNode_0_1" index="1" disallow="tram rail_urban rail rail_electric rail_fast ship" speed="16.67" length="8.20" shape="621.20,2072.34 619.42,2064.54"/>
        <lane id=":1015442479#0-AddedOffRampNode_0_2" index="2" disallow="tram rail_urban rail rail_electric rail_fast ship" speed="16.67" length="8.20" shape="624.32,2071.62 622.53,2063.83"/>
        <lane id=":1015442479#0-AddedOffRampNode_0_3" index="3" disallow="tram rail_urban rail rail_electric rail_fast ship" speed="16.67" length="8.20" shape="627.44,2070.91 625.65,2063.11"/>
    </edge>
    <edge id=":2024972764_0" function="internal">
        <lane id=":2024972764_0_0" index="0" disallow="tram rail_urban rail rail_electric rail_fast ship" speed="8.29" length="8.04" shape="3009.60,1561.96 3008.44,1560.88 3006.82,1560.13 3004.74,1559.71 3002.19,1559.60"/>
    </edge>
    <edge id=":2024972764_1" function="internal">
        <lane id=":2024972764_1_0" index="0" disallow="tram rail_urban rail rail_electric rail_fast ship" speed="27.78" length="8.60" shape="3009.60,1561.96 3004.08,1555.36"/>
    </edge>
    <edge id=":2024972764_2" function="internal">
        <lane id=":2024972764_2_0" index="0" disallow="tram rail_urban rail rail_electric rail_fast ship" speed="3.65" length="1.44" shape="3009.60,1561.96 3009.52,1560.52"/>
    </edge>
    <edge id=":2024972764_6" function="internal">
        <lane id=":2024972764_6_0" index="0" disallow="tram rail_urban rail rail_electric rail_fast ship" speed="3.65" length="3.23" shape="3009.52,1560.52 3009.92,1559.72 3010.80,1559.56 3012.16,1560.04"/>
    </edge>
    <edge id=":2024972764_3" function="internal">
        <lane id=":2024972764_3_0" index="0" disallow="tram rail_urban rail rail_electric rail_fast ship" speed="27.78" length="8.79" shape="3006.52,1553.29 3012.16,1560.04"/>
    </edge>
    <edge id=":2024972764_4" function="internal">
        <lane id=":2024972764_4_0" index="0" disallow="tram rail_urban rail rail_electric rail_fast ship" speed="5.98" length="3.35" shape="3006.52,1553.29 3008.22,1555.97 3008.21,1556.14"/>
    </edge>
    <edge id=":2024972764_5" function="internal">
        <lane id=":2024972764_5_0" index="0" disallow="tram rail_urban rail rail_electric rail_fast ship" speed="3.65" length="1.44" shape="3006.52,1553.29 3006.69,1554.72"/>
    </edge>
    <edge id=":2024972764_7" function="internal">
        <lane id=":2024972764_7_0" index="0" disallow="tram rail_urban rail rail_electric rail_fast ship" speed="5.98" length="8.02" shape="3008.21,1556.14 3008.07,1557.92 3006.06,1559.13 3002.19,1559.60"/>
    </edge>
    <edge id=":2024972764_8" function="internal">
        <lane id=":2024972764_8_0" index="0" disallow="tram rail_urban rail rail_electric rail_fast ship" speed="3.65" length="3.23" shape="3006.69,1554.72 3006.34,1555.54 3005.47,1555.76 3004.08,1555.36"/>
    </edge>
    <edge id=":2024972787_0" function="internal">
        <lane id=":2024972787_0_0" index="0" disallow="tram rail_urban rail rail_electric rail_fast ship" speed="27.78" length="15.98" shape="2986.23,1531.68 2983.66,1528.76 2981.27,1525.45 2979.11,1521.97 2977.23,1518.54"/>
    </edge>
    <edge id=":2024972787_1" function="internal">
        <lane id=":2024972787_1_0" index="0" disallow="tram rail_urban rail rail_electric rail_fast ship" speed="6.42" length="0.36" shape="2986.23,1531.68 2986.06,1531.37"/>
    </edge>
    <edge id=":2024972787_2" function="internal">
        <lane id=":2024972787_2_0" index="0" disallow="tram rail_urban rail rail_electric rail_fast ship" speed="3.56" length="0.52" shape="2986.23,1531.68 2986.21,1531.16"/>
    </edge>
    <edge id=":2024972787_10" function="internal">
        <lane id=":2024972787_10_0" index="0" disallow="tram rail_urban rail rail_electric rail_fast ship" speed="6.42" length="10.73" shape="2986.06,1531.37 2985.20,1529.84 2985.71,1527.93 2987.77,1525.96 2991.38,1523.93"/>
    </edge>
    <edge id=":2024972787_11" function="internal">
        <lane id=":2024972787_11_0" index="0" disallow="tram rail_urban rail rail_electric rail_fast ship" speed="3.56" length="3.43" shape="2986.21,1531.16 2986.18,1530.46 2986.53,1529.79 2987.28,1529.67 2988.42,1530.09"/>
    </edge>
    <edge id=":2024972787_3" function="internal">
        <lane id=":2024972787_3_0" index="0" disallow="tram rail_urban rail rail_electric rail_fast ship" speed="7.53" length="12.10" shape="2980.07,1517.08 2982.04,1519.93 2984.35,1521.54 2987.01,1521.91 2990.02,1521.04"/>
    </edge>
    <edge id=":2024972787_4" function="internal">
        <lane id=":2024972787_4_0" index="0" disallow="tram rail_urban rail rail_electric rail_fast ship" speed="27.78" length="15.47" shape="2980.07,1517.08 2981.99,1520.38 2984.17,1523.63 2986.38,1526.85 2988.42,1530.09"/>
    </edge>
    <edge id=":2024972787_5" function="internal">
        <lane id=":2024972787_5_0" index="0" disallow="tram rail_urban rail rail_electric rail_fast ship" speed="3.65" length="4.67" shape="2980.07,1517.08 2979.91,1518.51 2979.39,1519.23 2978.49,1519.24 2977.23,1518.54"/>
    </edge>
    <edge id=":2024972787_6" function="internal">
        <lane id=":2024972787_6_0" index="0" disallow="tram rail_urban rail rail_electric rail_fast ship" speed="5.70" length="9.21" shape="2973.61,1524.36 2976.35,1524.04 2977.86,1522.97 2978.15,1521.13 2977.23,1518.54"/>
    </edge>
    <edge id=":2024972787_7" function="internal">
        <lane id=":2024972787_7_0" index="0" disallow="tram rail_urban rail rail_electric rail_fast ship" speed="21.94" length="17.74" shape="2973.61,1524.36 2978.64,1524.40 2982.11,1524.09 2985.44,1523.08 2990.02,1521.04"/>
        <lane id=":2024972787_7_1" index="1" disallow="tram rail_urban rail rail_electric rail_fast ship" speed="22.86" length="17.74" shape="2973.56,1527.56 2979.02,1527.61 2982.79,1527.26 2986.40,1526.15 2991.38,1523.93"/>
    </edge>
    <edge id=":2024972787_9" function="internal">
        <lane id=":2024972787_9_0" index="0" disallow="tram rail_urban rail rail_electric rail_fast ship" speed="10.68" length="6.83" shape="2973.56,1527.56 2979.57,1527.81 2980.37,1527.90"/>
    </edge>
    <edge id=":2024972787_12" function="internal">
        <lane id=":2024972787_12_0" index="0" disallow="tram rail_urban rail rail_electric rail_fast ship" speed="10.68" length="8.49" shape="2980.37,1527.90 2984.05,1528.31 2987.00,1529.08 2988.42,1530.09"/>
    </edge>
    <edge id=":2024972894_0" function="internal">
        <lane id=":2024972894_0_0" index="0" disallow="tram rail_urban rail rail_electric rail_fast ship" speed="27.78" length="12.58" shape="2976.33,1516.79 2974.92,1513.74 2973.94,1510.99 2973.10,1508.19 2972.12,1504.96"/>
    </edge>
    <edge id=":2024972894_1" function="internal">
        <lane id=":2024972894_1_0" index="0" disallow="tram rail_urban rail rail_electric rail_fast ship" speed="8.25" length="2.36" shape="2976.33,1516.79 2975.88,1514.59 2975.91,1514.48"/>
    </edge>
    <edge id=":2024972894_2" function="internal">
        <lane id=":2024972894_2_0" index="0" disallow="tram rail_urban rail rail_electric rail_fast ship" speed="3.65" length="1.44" shape="2976.33,1516.79 2976.49,1515.36"/>
    </edge>
    <edge id=":2024972894_9" function="internal">
        <lane id=":2024972894_9_0" index="0" disallow="tram rail_urban rail rail_electric rail_fast ship" speed="8.25" length="10.30" shape="2975.91,1514.48 2976.65,1512.12 2978.64,1509.37 2981.86,1506.34"/>
    </edge>
    <edge id=":2024972894_10" function="internal">
        <lane id=":2024972894_10_0" index="0" disallow="tram rail_urban rail rail_electric rail_fast ship" speed="3.65" length="3.23" shape="2976.49,1515.36 2977.02,1514.64 2977.91,1514.63 2979.17,1515.33"/>
    </edge>
    <edge id=":2024972894_3" function="internal">
        <lane id=":2024972894_3_0" index="0" disallow="tram rail_urban rail rail_electric rail_fast ship" speed="5.76" length="9.17" shape="2975.22,1504.17 2976.24,1506.68 2977.68,1507.88 2979.56,1507.76 2981.86,1506.34"/>
    </edge>
    <edge id=":2024972894_4" function="internal">
        <lane id=":2024972894_4_0" index="0" disallow="tram rail_urban rail rail_electric rail_fast ship" speed="27.78" length="11.87" shape="2975.22,1504.17 2976.03,1507.33 2976.80,1509.90 2977.76,1512.39 2979.17,1515.33"/>
    </edge>
    <edge id=":2024972894_5" function="internal">
        <lane id=":2024972894_5_0" index="0" disallow="tram rail_urban rail rail_electric rail_fast ship" speed="3.68" length="1.44" shape="2975.22,1504.17 2974.74,1505.53"/>
    </edge>
    <edge id=":2024972894_11" function="internal">
        <lane id=":2024972894_11_0" index="0" disallow="tram rail_urban rail rail_electric rail_fast ship" speed="3.68" length="3.23" shape="2974.74,1505.53 2974.06,1506.12 2973.19,1505.92 2972.12,1504.96"/>
    </edge>
    <edge id=":2024972894_6" function="internal">
        <lane id=":2024972894_6_0" index="0" disallow="tram rail_urban rail rail_electric rail_fast ship" speed="6.94" length="10.69" shape="2968.58,1513.59 2970.97,1512.43 2972.36,1510.61 2972.74,1508.12 2972.12,1504.96"/>
    </edge>
    <edge id=":2024972894_7" function="internal">
        <lane id=":2024972894_7_0" index="0" disallow="tram rail_urban rail rail_electric rail_fast ship" speed="23.58" length="15.23" shape="2968.58,1513.59 2972.14,1512.33 2975.58,1510.64 2978.83,1508.62 2981.86,1506.34"/>
    </edge>
    <edge id=":2024972894_8" function="internal">
        <lane id=":2024972894_8_0" index="0" disallow="tram rail_urban rail rail_electric rail_fast ship" speed="7.86" length="11.58" shape="2968.58,1513.59 2972.41,1512.79 2975.45,1512.82 2977.71,1513.66 2979.17,1515.33"/>
    </edge>
    <edge id=":2024972927_0" function="internal">
        <lane id=":2024972927_0_0" index="0" disallow="tram rail_urban rail rail_electric rail_fast ship" speed="27.78" length="3.37" shape="2945.07,1519.88 2946.07,1519.83 2946.75,1519.76 2947.42,1519.61 2948.38,1519.34"/>
    </edge>
    <edge id=":2024972927_1" function="internal">
        <lane id=":2024972927_1_0" index="0" disallow="tram rail_urban rail rail_electric rail_fast ship" speed="27.78" length="3.42" shape="2945.20,1523.07 2946.28,1523.03 2947.02,1523.03 2947.76,1523.08 2948.84,1523.19"/>
        <lane id=":2024972927_1_1" index="1" disallow="tram rail_urban rail rail_electric rail_fast ship" speed="27.78" length="3.42" shape="2945.33,1526.27 2946.28,1526.24 2946.93,1526.24 2947.57,1526.28 2948.51,1526.37"/>
    </edge>
    <edge id=":2024972988_0" function="internal">
        <lane id=":2024972988_0_0" index="0" disallow="tram rail_urban rail rail_electric rail_fast ship" speed="11.73" length="15.12" shape="2995.13,1544.96 2992.43,1542.46 2989.27,1540.71 2985.66,1539.71 2981.58,1539.45"/>
    </edge>
    <edge id=":2024972988_1" function="internal">
        <lane id=":2024972988_1_0" index="0" disallow="tram rail_urban rail rail_electric rail_fast ship" speed="27.78" length="15.81" shape="2995.13,1544.96 2992.88,1541.80 2990.85,1538.30 2988.78,1534.84 2986.38,1531.82"/>
    </edge>
    <edge id=":2024972988_2" function="internal">
        <lane id=":2024972988_2_0" index="0" disallow="tram rail_urban rail rail_electric rail_fast ship" speed="3.65" length="4.67" shape="2995.13,1544.96 2994.95,1543.52 2995.30,1542.70 2996.16,1542.48 2997.55,1542.87"/>
    </edge>
    <edge id=":2024972988_3" function="internal">
        <lane id=":2024972988_3_0" index="0" disallow="tram rail_urban rail rail_electric rail_fast ship" speed="5.96" length="9.09" shape="2999.17,1535.72 2996.95,1537.09 2995.95,1538.74 2996.14,1540.67 2997.55,1542.87"/>
    </edge>
    <edge id=":2024972988_4" function="internal">
        <lane id=":2024972988_4_0" index="0" disallow="tram rail_urban rail rail_electric rail_fast ship" speed="27.78" length="17.57" shape="2999.17,1535.72 2994.21,1537.79 2990.66,1538.85 2986.96,1539.28 2981.58,1539.45"/>
        <lane id=":2024972988_4_1" index="1" disallow="tram rail_urban rail rail_electric rail_fast ship" speed="27.33" length="17.57" shape="2997.88,1532.79 2993.27,1534.72 2989.95,1535.70 2986.51,1536.09 2981.49,1536.26"/>
    </edge>
    <edge id=":2024972988_6" function="internal">
        <lane id=":2024972988_6_0" index="0" disallow="tram rail_urban rail rail_electric rail_fast ship" speed="8.75" length="12.31" shape="2997.88,1532.79 2994.42,1533.94 2991.34,1534.16 2988.66,1533.45 2986.38,1531.82"/>
    </edge>
    <edge id=":2024972988_7" function="internal">
        <lane id=":2024972988_7_0" index="0" disallow="tram rail_urban rail rail_electric rail_fast ship" speed="27.78" length="15.53" shape="2988.52,1530.26 2990.53,1533.53 2992.75,1536.77 2995.12,1539.91 2997.55,1542.87"/>
    </edge>
    <edge id=":2024972988_8" function="internal">
        <lane id=":2024972988_8_0" index="0" disallow="tram rail_urban rail rail_electric rail_fast ship" speed="6.37" length="11.88" shape="2988.52,1530.26 2989.32,1532.78 2988.41,1534.62 2985.80,1535.78 2981.49,1536.26"/>
    </edge>
    <edge id=":2024972988_9" function="internal">
        <lane id=":2024972988_9_0" index="0" disallow="tram rail_urban rail rail_electric rail_fast ship" speed="3.54" length="3.87" shape="2988.52,1530.26 2988.57,1531.46 2988.23,1532.12 2987.50,1532.24 2986.38,1531.82"/>
    </edge>
    <edge id=":2024973084_0" function="internal">
        <lane id=":2024973084_0_0" index="0" disallow="tram rail_urban rail rail_electric rail_fast ship" speed="13.03" length="8.67" shape="3094.67,1429.08 3097.26,1428.93 3099.10,1428.86 3100.78,1428.39 3102.88,1427.04"/>
    </edge>
    <edge id=":2024973084_1" function="internal">
        <lane id=":2024973084_1_0" index="0" disallow="tram rail_urban rail rail_electric rail_fast ship" speed="27.78" length="8.61" shape="3096.24,1432.69 3102.88,1427.04"/>
        <lane id=":2024973084_1_1" index="1" disallow="tram rail_urban rail rail_electric rail_fast ship" speed="27.78" length="8.61" shape="3098.29,1435.15 3104.84,1429.57"/>
        <lane id=":2024973084_1_2" index="2" disallow="tram rail_urban rail rail_electric rail_fast ship" speed="27.78" length="8.61" shape="3100.33,1437.61 3106.81,1432.09"/>
    </edge>
    <edge id=":2024973089_0" function="internal">
        <lane id=":2024973089_0_0" index="0" disallow="tram rail_urban rail rail_electric rail_fast ship" speed="27.78" length="3.66" shape="3107.92,1454.68 3105.10,1457.16"/>
        <lane id=":2024973089_0_1" index="1" disallow="tram rail_urban rail rail_electric rail_fast ship" speed="27.78" length="3.66" shape="3105.79,1452.29 3103.04,1454.71"/>
        <lane id=":2024973089_0_2" index="2" disallow="tram rail_urban rail rail_electric rail_fast ship" speed="27.78" length="3.66" shape="3103.66,1449.91 3100.98,1452.26"/>
    </edge>
    <edge id=":2024973142_0" function="internal">
        <lane id=":2024973142_0_0" index="0" disallow="pedestrian bicycle tram rail_urban rail rail_electric rail_fast ship" speed="15.28" length="50.31" shape="3300.12,1701.85 3290.51,1694.60 3279.48,1687.60 3268.19,1680.95 3257.80,1674.75"/>
        <lane id=":2024973142_0_1" index="1" disallow="pedestrian bicycle tram rail_urban rail rail_electric rail_fast ship" speed="15.28" length="50.80" shape="3302.22,1699.43 3292.54,1692.13 3281.37,1685.03 3269.95,1678.28 3259.50,1672.03"/>
        <lane id=":2024973142_0_2" index="2" disallow="pedestrian bicycle tram rail_urban rail rail_electric rail_fast ship" speed="15.28" length="50.94" shape="3302.22,1699.43 3292.81,1691.70 3282.22,1683.67 3271.37,1675.99 3261.19,1669.31"/>
    </edge>
    <edge id=":2024973142_3" function="internal">
        <lane id=":2024973142_3_0" index="0" disallow="pedestrian bicycle tram rail_urban rail rail_electric rail_fast ship" speed="15.28" length="58.16" shape="3304.31,1697.01 3258.28,1661.31"/>
        <lane id=":2024973142_3_1" index="1" disallow="pedestrian bicycle tram rail_urban rail rail_electric rail_fast ship" speed="15.28" length="58.16" shape="3304.31,1697.01 3260.45,1658.95"/>
    </edge>
    <edge id=":2024973162_0" function="internal">
        <lane id=":2024973162_0_0" index="0" disallow="pedestrian bicycle tram rail_urban rail rail_electric rail_fast ship" speed="15.28" length="0.25" shape="3224.66,1605.66 3224.81,1605.78"/>
        <lane id=":2024973162_0_1" index="1" disallow="pedestrian bicycle tram rail_urban rail rail_electric rail_fast ship" speed="15.28" length="0.25" shape="3222.58,1608.08 3222.81,1608.27"/>
    </edge>
    <edge id=":2024973266_0" function="internal">
        <lane id=":2024973266_0_0" index="0" disallow="tram rail_urban rail rail_electric rail_fast ship" speed="27.38" length="15.98" shape="3183.68,1383.66 3180.81,1386.91 3179.86,1389.86 3179.32,1393.15 3177.67,1397.40"/>
        <lane id=":2024973266_0_1" index="1" disallow="tram rail_urban rail rail_electric rail_fast ship" speed="27.29" length="15.98" shape="3183.68,1383.66 3180.37,1386.67 3178.46,1389.09 3176.95,1391.85 3174.87,1395.86"/>
        <lane id=":2024973266_0_2" index="2" disallow="tram rail_urban rail rail_electric rail_fast ship" speed="27.78" length="15.98" shape="3181.63,1381.20 3178.05,1384.44 3175.97,1387.04 3174.32,1389.99 3172.06,1394.32"/>
        <lane id=":2024973266_0_3" index="3" disallow="tram rail_urban rail rail_electric rail_fast ship" speed="27.78" length="15.98" shape="3181.63,1381.20 3169.23,1392.76"/>
    </edge>
    <edge id=":2024973266_4" function="internal">
        <lane id=":2024973266_4_0" index="0" disallow="tram rail_urban rail rail_electric rail_fast ship" speed="3.65" length="1.44" shape="3181.63,1381.20 3180.19,1381.36"/>
    </edge>
    <edge id=":2024973266_9" function="internal">
        <lane id=":2024973266_9_0" index="0" disallow="tram rail_urban rail rail_electric rail_fast ship" speed="3.65" length="3.23" shape="3180.19,1381.36 3179.37,1381.00 3179.17,1380.13 3179.58,1378.74"/>
    </edge>
    <edge id=":2024973266_5" function="internal">
        <lane id=":2024973266_5_0" index="0" disallow="tram rail_urban rail rail_electric rail_fast ship" speed="21.80" length="15.70" shape="3163.86,1381.80 3168.21,1380.81 3171.24,1380.11 3174.01,1378.87 3177.53,1376.29"/>
        <lane id=":2024973266_5_1" index="1" disallow="tram rail_urban rail rail_electric rail_fast ship" speed="22.83" length="15.70" shape="3163.86,1381.80 3168.72,1381.18 3172.32,1381.43 3175.62,1381.10 3179.58,1378.74"/>
    </edge>
    <edge id=":2024973266_7" function="internal">
        <lane id=":2024973266_7_0" index="0" disallow="tram rail_urban rail rail_electric rail_fast ship" speed="7.41" length="9.49" shape="3164.68,1384.89 3170.64,1384.03 3173.86,1385.31"/>
        <lane id=":2024973266_7_1" index="1" disallow="tram rail_urban rail rail_electric rail_fast ship" speed="6.08" length="6.29" shape="3165.50,1387.99 3170.64,1386.99 3171.67,1387.19"/>
    </edge>
    <edge id=":2024973266_10" function="internal">
        <lane id=":2024973266_10_0" index="0" disallow="tram rail_urban rail rail_electric rail_fast ship" speed="7.41" length="9.48" shape="3173.86,1385.31 3174.33,1388.74 3172.06,1394.32"/>
    </edge>
    <edge id=":2024973266_11" function="internal">
        <lane id=":2024973266_11_0" index="0" disallow="tram rail_urban rail rail_electric rail_fast ship" speed="6.08" length="8.04" shape="3171.67,1387.19 3172.98,1387.45 3172.51,1389.37 3169.23,1392.76"/>
    </edge>
    <edge id=":2024973291_0" function="internal">
        <lane id=":2024973291_0_0" index="0" disallow="pedestrian bicycle tram rail_urban rail rail_electric rail_fast ship" speed="13.89" length="5.41" shape="3110.95,1495.06 3112.30,1496.06 3113.27,1496.71 3114.18,1497.41 3115.35,1498.60"/>
        <lane id=":2024973291_0_1" index="1" disallow="pedestrian bicycle tram rail_urban rail rail_electric rail_fast ship" speed="13.89" length="5.41" shape="3108.95,1497.56 3110.19,1498.46 3111.07,1499.04 3111.91,1499.67 3112.98,1500.75"/>
    </edge>
    <edge id=":2024973291_2" function="internal">
        <lane id=":2024973291_2_0" index="0" disallow="pedestrian bicycle tram rail_urban rail rail_electric rail_fast ship" speed="7.67" length="3.99" shape="3107.22,1501.04 3108.37,1501.27 3109.14,1501.55 3109.80,1502.05 3110.61,1502.90"/>
    </edge>
    <edge id=":2217825343_0" function="internal">
        <lane id=":2217825343_0_0" index="0" disallow="pedestrian bicycle tram rail_urban rail rail_electric rail_fast ship" speed="22.22" length="8.42" shape="3259.82,1634.45 3262.03,1635.71 3263.93,1635.88 3265.85,1636.02 3268.14,1637.19"/>
        <lane id=":2217825343_0_1" index="1" disallow="pedestrian bicycle tram rail_urban rail rail_electric rail_fast ship" speed="22.22" length="8.42" shape="3258.19,1637.27 3260.31,1638.44 3262.13,1638.55 3263.98,1638.63 3266.16,1639.71"/>
        <lane id=":2217825343_0_2" index="2" disallow="pedestrian bicycle tram rail_urban rail rail_electric rail_fast ship" speed="22.22" length="8.42" shape="3258.19,1637.27 3264.19,1642.23"/>
    </edge>
    <edge id=":2217825343_3" function="internal">
        <lane id=":2217825343_3_0" index="0" disallow="pedestrian bicycle tram rail_urban rail rail_electric rail_fast ship" speed="22.22" length="7.69" shape="3256.21,1640.72 3258.49,1641.45 3260.32,1641.29 3262.09,1641.22 3264.19,1642.23"/>
        <lane id=":2217825343_3_1" index="1" disallow="pedestrian bicycle tram rail_urban rail rail_electric rail_fast ship" speed="22.22" length="7.69" shape="3254.61,1643.49 3256.78,1644.16 3258.53,1643.94 3260.22,1643.82 3262.22,1644.75"/>
        <lane id=":2217825343_3_2" index="2" disallow="pedestrian bicycle tram rail_urban rail rail_electric rail_fast ship" speed="22.22" length="7.69" shape="3254.61,1643.49 3256.36,1644.50 3257.53,1645.22 3258.65,1646.03 3260.24,1647.26"/>
    </edge>
    <edge id=":2217869570_0" function="internal">
        <lane id=":2217869570_0_0" index="0" disallow="pedestrian bicycle tram rail_urban rail rail_electric rail_fast ship" speed="5.53" length="6.88" shape="3070.07,1455.52 3071.07,1456.21 3072.37,1456.12 3073.96,1455.23 3075.86,1453.54"/>
    </edge>
    <edge id=":2217869570_1" function="internal">
        <lane id=":2217869570_1_0" index="0" disallow="pedestrian bicycle tram rail_urban rail rail_electric rail_fast ship" speed="13.89" length="11.78" shape="3070.07,1455.52 3077.61,1464.43"/>
        <lane id=":2217869570_1_1" index="1" disallow="pedestrian bicycle tram rail_urban rail rail_electric rail_fast ship" speed="13.89" length="11.78" shape="3067.55,1457.48 3075.22,1466.56"/>
    </edge>
    <edge id=":2217869570_3" function="internal">
        <lane id=":2217869570_3_0" index="0" disallow="pedestrian bicycle tram rail_urban rail rail_electric rail_fast ship" speed="25.00" length="14.84" shape="3065.19,1463.70 3075.86,1453.54"/>
        <lane id=":2217869570_3_1" index="1" disallow="pedestrian bicycle tram rail_urban rail rail_electric rail_fast ship" speed="25.00" length="14.84" shape="3067.31,1466.09 3078.14,1455.78"/>
    </edge>
    <edge id=":2217869570_5" function="internal">
        <lane id=":2217869570_5_0" index="0" disallow="pedestrian bicycle tram rail_urban rail rail_electric rail_fast ship" speed="6.51" length="4.26" shape="3067.31,1466.09 3069.38,1464.73 3071.13,1464.40"/>
    </edge>
    <edge id=":2217869570_6" function="internal">
        <lane id=":2217869570_6_0" index="0" disallow="pedestrian bicycle tram rail_urban rail rail_electric rail_fast ship" speed="6.51" length="4.77" shape="3071.13,1464.40 3071.38,1464.36 3073.33,1464.97 3075.22,1466.56"/>
    </edge>
    <edge id=":2217869577_0" function="internal">